<?xml version="1.0" encoding="UTF-8"?>

<!-- generated on 01/07/21 17:50:30 by Eclipse SUMO netconvert Version 1.8.0
<configuration xmlns:xsi="http://www.w3.org/2001/XMLSchema-instance" xsi:noNamespaceSchemaLocation="http://sumo.dlr.de/xsd/netconvertConfiguration.xsd">

    <input>
        <node-files value="3x3intersection.nod.xml"/>
        <edge-files value="3x3intersection.edg.xml"/>
    </input>

    <output>
        <output-file value="3x3intersection.net.xml"/>
    </output>

    <report>
        <aggregate-warnings value="5"/>
    </report>

</configuration>
-->

<net version="1.6" junctionCornerDetail="5" limitTurnSpeed="5.50" xmlns:xsi="http://www.w3.org/2001/XMLSchema-instance" xsi:noNamespaceSchemaLocation="http://sumo.dlr.de/xsd/net_file.xsd">

    <location netOffset="200.00,200.00" convBoundary="0.00,0.00,400.00,400.00" origBoundary="-200.00,-200.00,200.00,200.00" projParameter="!"/>

    <edge id=":n_ccc_0" function="internal">
        <lane id=":n_ccc_0_0" index="0" speed="6.51" length="9.03" shape="192.00,213.60 191.65,211.15 190.60,209.40 188.85,208.35 186.40,208.00"/>
    </edge>
    <edge id=":n_ccc_1" function="internal">
        <lane id=":n_ccc_1_0" index="0" speed="13.89" length="27.20" shape="192.00,213.60 192.00,186.40"/>
        <lane id=":n_ccc_1_1" index="1" speed="13.89" length="27.20" shape="195.20,213.60 195.20,186.40"/>
        <lane id=":n_ccc_1_2" index="2" speed="13.89" length="27.20" shape="198.40,213.60 198.40,186.40"/>
    </edge>
    <edge id=":n_ccc_4" function="internal">
        <lane id=":n_ccc_4_0" index="0" speed="10.36" length="7.98" shape="198.40,213.60 199.35,206.95 200.00,205.87"/>
    </edge>
    <edge id=":n_ccc_5" function="internal">
        <lane id=":n_ccc_5_0" index="0" speed="3.65" length="2.34" shape="198.40,213.60 199.20,212.40 200.00,212.00"/>
    </edge>
    <edge id=":n_ccc_24" function="internal">
        <lane id=":n_ccc_24_0" index="0" speed="10.36" length="16.53" shape="200.00,205.87 202.20,202.20 206.95,199.35 213.60,198.40"/>
    </edge>
    <edge id=":n_ccc_25" function="internal">
        <lane id=":n_ccc_25_0" index="0" speed="3.65" length="2.34" shape="200.00,212.00 200.80,212.40 201.60,213.60"/>
    </edge>
    <edge id=":n_ccc_6" function="internal">
        <lane id=":n_ccc_6_0" index="0" speed="6.51" length="9.03" shape="213.60,208.00 211.15,208.35 209.40,209.40 208.35,211.15 208.00,213.60"/>
    </edge>
    <edge id=":n_ccc_7" function="internal">
        <lane id=":n_ccc_7_0" index="0" speed="13.89" length="27.20" shape="213.60,208.00 186.40,208.00"/>
        <lane id=":n_ccc_7_1" index="1" speed="13.89" length="27.20" shape="213.60,204.80 186.40,204.80"/>
        <lane id=":n_ccc_7_2" index="2" speed="13.89" length="27.20" shape="213.60,201.60 186.40,201.60"/>
    </edge>
    <edge id=":n_ccc_10" function="internal">
        <lane id=":n_ccc_10_0" index="0" speed="10.36" length="7.98" shape="213.60,201.60 206.95,200.65 205.87,200.00"/>
    </edge>
    <edge id=":n_ccc_11" function="internal">
        <lane id=":n_ccc_11_0" index="0" speed="3.65" length="2.34" shape="213.60,201.60 212.40,200.80 212.00,200.00"/>
    </edge>
    <edge id=":n_ccc_26" function="internal">
        <lane id=":n_ccc_26_0" index="0" speed="10.36" length="16.53" shape="205.87,200.00 202.20,197.80 199.35,193.05 198.40,186.40"/>
    </edge>
    <edge id=":n_ccc_27" function="internal">
        <lane id=":n_ccc_27_0" index="0" speed="3.65" length="2.34" shape="212.00,200.00 212.40,199.20 213.60,198.40"/>
    </edge>
    <edge id=":n_ccc_12" function="internal">
        <lane id=":n_ccc_12_0" index="0" speed="6.51" length="9.03" shape="208.00,186.40 208.35,188.85 209.40,190.60 211.15,191.65 213.60,192.00"/>
    </edge>
    <edge id=":n_ccc_13" function="internal">
        <lane id=":n_ccc_13_0" index="0" speed="13.89" length="27.20" shape="208.00,186.40 208.00,213.60"/>
        <lane id=":n_ccc_13_1" index="1" speed="13.89" length="27.20" shape="204.80,186.40 204.80,213.60"/>
        <lane id=":n_ccc_13_2" index="2" speed="13.89" length="27.20" shape="201.60,186.40 201.60,213.60"/>
    </edge>
    <edge id=":n_ccc_16" function="internal">
        <lane id=":n_ccc_16_0" index="0" speed="10.36" length="7.98" shape="201.60,186.40 200.65,193.05 200.00,194.13"/>
    </edge>
    <edge id=":n_ccc_17" function="internal">
        <lane id=":n_ccc_17_0" index="0" speed="3.65" length="2.34" shape="201.60,186.40 200.80,187.60 200.00,188.00"/>
    </edge>
    <edge id=":n_ccc_28" function="internal">
        <lane id=":n_ccc_28_0" index="0" speed="10.36" length="16.53" shape="200.00,194.13 197.80,197.80 193.05,200.65 186.40,201.60"/>
    </edge>
    <edge id=":n_ccc_29" function="internal">
        <lane id=":n_ccc_29_0" index="0" speed="3.65" length="2.34" shape="200.00,188.00 199.20,187.60 198.40,186.40"/>
    </edge>
    <edge id=":n_ccc_18" function="internal">
        <lane id=":n_ccc_18_0" index="0" speed="6.51" length="9.03" shape="186.40,192.00 188.85,191.65 190.60,190.60 191.65,188.85 192.00,186.40"/>
    </edge>
    <edge id=":n_ccc_19" function="internal">
        <lane id=":n_ccc_19_0" index="0" speed="13.89" length="27.20" shape="186.40,192.00 213.60,192.00"/>
        <lane id=":n_ccc_19_1" index="1" speed="13.89" length="27.20" shape="186.40,195.20 213.60,195.20"/>
        <lane id=":n_ccc_19_2" index="2" speed="13.89" length="27.20" shape="186.40,198.40 213.60,198.40"/>
    </edge>
    <edge id=":n_ccc_22" function="internal">
        <lane id=":n_ccc_22_0" index="0" speed="10.36" length="7.98" shape="186.40,198.40 193.05,199.35 194.13,200.00"/>
    </edge>
    <edge id=":n_ccc_23" function="internal">
        <lane id=":n_ccc_23_0" index="0" speed="3.65" length="2.34" shape="186.40,198.40 187.60,199.20 188.00,200.00"/>
    </edge>
    <edge id=":n_ccc_30" function="internal">
        <lane id=":n_ccc_30_0" index="0" speed="10.36" length="16.53" shape="194.13,200.00 197.80,202.20 200.65,206.95 201.60,213.60"/>
    </edge>
    <edge id=":n_ccc_31" function="internal">
        <lane id=":n_ccc_31_0" index="0" speed="3.65" length="2.34" shape="188.00,200.00 187.60,200.80 186.40,201.60"/>
    </edge>
    <edge id=":n_ccl_0" function="internal">
        <lane id=":n_ccl_0_0" index="0" speed="6.51" length="9.03" shape="113.60,208.00 111.15,208.35 109.40,209.40 108.35,211.15 108.00,213.60"/>
    </edge>
    <edge id=":n_ccl_1" function="internal">
        <lane id=":n_ccl_1_0" index="0" speed="13.89" length="27.20" shape="113.60,208.00 86.40,208.00"/>
        <lane id=":n_ccl_1_1" index="1" speed="13.89" length="27.20" shape="113.60,204.80 86.40,204.80"/>
        <lane id=":n_ccl_1_2" index="2" speed="13.89" length="27.20" shape="113.60,201.60 86.40,201.60"/>
    </edge>
    <edge id=":n_ccl_4" function="internal">
        <lane id=":n_ccl_4_0" index="0" speed="10.88" length="9.57" shape="113.60,201.60 105.55,200.65 104.24,200.00"/>
    </edge>
    <edge id=":n_ccl_5" function="internal">
        <lane id=":n_ccl_5_0" index="0" speed="10.36" length="7.98" shape="113.60,201.60 106.95,200.65 105.87,200.00"/>
    </edge>
    <edge id=":n_ccl_6" function="internal">
        <lane id=":n_ccl_6_0" index="0" speed="3.65" length="2.34" shape="113.60,201.60 112.40,200.80 112.00,200.00"/>
    </edge>
    <edge id=":n_ccl_20" function="internal">
        <lane id=":n_ccl_20_0" index="0" speed="10.88" length="17.57" shape="104.24,200.00 99.80,197.80 96.35,193.05 95.20,186.40"/>
    </edge>
    <edge id=":n_ccl_21" function="internal">
        <lane id=":n_ccl_21_0" index="0" speed="10.36" length="16.53" shape="105.87,200.00 102.20,197.80 99.35,193.05 98.40,186.40"/>
    </edge>
    <edge id=":n_ccl_22" function="internal">
        <lane id=":n_ccl_22_0" index="0" speed="3.65" length="2.34" shape="112.00,200.00 112.40,199.20 113.60,198.40"/>
    </edge>
    <edge id=":n_ccl_7" function="internal">
        <lane id=":n_ccl_7_0" index="0" speed="6.51" length="9.03" shape="108.00,186.40 108.35,188.85 109.40,190.60 111.15,191.65 113.60,192.00"/>
    </edge>
    <edge id=":n_ccl_8" function="internal">
        <lane id=":n_ccl_8_0" index="0" speed="13.89" length="27.20" shape="108.00,186.40 108.00,213.60"/>
        <lane id=":n_ccl_8_1" index="1" speed="13.89" length="27.20" shape="104.80,186.40 104.80,213.60"/>
        <lane id=":n_ccl_8_2" index="2" speed="13.89" length="27.20" shape="101.60,186.40 101.60,213.60"/>
    </edge>
    <edge id=":n_ccl_11" function="internal">
        <lane id=":n_ccl_11_0" index="0" speed="10.88" length="27.14" shape="101.60,186.40 100.65,194.45 97.80,200.20 93.05,203.65 86.40,204.80"/>
    </edge>
    <edge id=":n_ccl_12" function="internal">
        <lane id=":n_ccl_12_0" index="0" speed="10.36" length="24.51" shape="101.60,186.40 100.65,193.05 97.80,197.80 93.05,200.65 86.40,201.60"/>
    </edge>
    <edge id=":n_ccl_13" function="internal">
        <lane id=":n_ccl_13_0" index="0" speed="3.65" length="2.34" shape="101.60,186.40 100.80,187.60 100.00,188.00"/>
    </edge>
    <edge id=":n_ccl_23" function="internal">
        <lane id=":n_ccl_23_0" index="0" speed="3.65" length="2.34" shape="100.00,188.00 99.20,187.60 98.40,186.40"/>
    </edge>
    <edge id=":n_ccl_14" function="internal">
        <lane id=":n_ccl_14_0" index="0" speed="6.51" length="9.03" shape="86.40,192.00 88.85,191.65 90.60,190.60 91.65,188.85 92.00,186.40"/>
    </edge>
    <edge id=":n_ccl_15" function="internal">
        <lane id=":n_ccl_15_0" index="0" speed="13.89" length="27.20" shape="86.40,192.00 113.60,192.00"/>
        <lane id=":n_ccl_15_1" index="1" speed="13.89" length="27.20" shape="86.40,195.20 113.60,195.20"/>
        <lane id=":n_ccl_15_2" index="2" speed="13.89" length="27.20" shape="86.40,198.40 113.60,198.40"/>
    </edge>
    <edge id=":n_ccl_18" function="internal">
        <lane id=":n_ccl_18_0" index="0" speed="10.36" length="7.98" shape="86.40,198.40 93.05,199.35 94.13,200.00"/>
    </edge>
    <edge id=":n_ccl_19" function="internal">
        <lane id=":n_ccl_19_0" index="0" speed="3.65" length="2.34" shape="86.40,198.40 87.60,199.20 88.00,200.00"/>
    </edge>
    <edge id=":n_ccl_24" function="internal">
        <lane id=":n_ccl_24_0" index="0" speed="10.36" length="16.53" shape="94.13,200.00 97.80,202.20 100.65,206.95 101.60,213.60"/>
    </edge>
    <edge id=":n_ccl_25" function="internal">
        <lane id=":n_ccl_25_0" index="0" speed="3.65" length="2.34" shape="88.00,200.00 87.60,200.80 86.40,201.60"/>
    </edge>
    <edge id=":n_ccr_0" function="internal">
        <lane id=":n_ccr_0_0" index="0" speed="6.51" length="9.03" shape="313.60,208.00 311.15,208.35 309.40,209.40 308.35,211.15 308.00,213.60"/>
    </edge>
    <edge id=":n_ccr_1" function="internal">
        <lane id=":n_ccr_1_0" index="0" speed="13.89" length="27.20" shape="313.60,208.00 286.40,208.00"/>
        <lane id=":n_ccr_1_1" index="1" speed="13.89" length="27.20" shape="313.60,204.80 286.40,204.80"/>
        <lane id=":n_ccr_1_2" index="2" speed="13.89" length="27.20" shape="313.60,201.60 286.40,201.60"/>
    </edge>
    <edge id=":n_ccr_4" function="internal">
        <lane id=":n_ccr_4_0" index="0" speed="10.88" length="9.57" shape="313.60,201.60 305.55,200.65 304.24,200.00"/>
    </edge>
    <edge id=":n_ccr_5" function="internal">
        <lane id=":n_ccr_5_0" index="0" speed="10.36" length="7.98" shape="313.60,201.60 306.95,200.65 305.87,200.00"/>
    </edge>
    <edge id=":n_ccr_6" function="internal">
        <lane id=":n_ccr_6_0" index="0" speed="3.65" length="2.34" shape="313.60,201.60 312.40,200.80 312.00,200.00"/>
    </edge>
    <edge id=":n_ccr_20" function="internal">
        <lane id=":n_ccr_20_0" index="0" speed="10.88" length="17.57" shape="304.24,200.00 299.80,197.80 296.35,193.05 295.20,186.40"/>
    </edge>
    <edge id=":n_ccr_21" function="internal">
        <lane id=":n_ccr_21_0" index="0" speed="10.36" length="16.53" shape="305.87,200.00 302.20,197.80 299.35,193.05 298.40,186.40"/>
    </edge>
    <edge id=":n_ccr_22" function="internal">
        <lane id=":n_ccr_22_0" index="0" speed="3.65" length="2.34" shape="312.00,200.00 312.40,199.20 313.60,198.40"/>
    </edge>
    <edge id=":n_ccr_7" function="internal">
        <lane id=":n_ccr_7_0" index="0" speed="6.51" length="9.03" shape="308.00,186.40 308.35,188.85 309.40,190.60 311.15,191.65 313.60,192.00"/>
    </edge>
    <edge id=":n_ccr_8" function="internal">
        <lane id=":n_ccr_8_0" index="0" speed="13.89" length="27.20" shape="308.00,186.40 308.00,213.60"/>
        <lane id=":n_ccr_8_1" index="1" speed="13.89" length="27.20" shape="304.80,186.40 304.80,213.60"/>
        <lane id=":n_ccr_8_2" index="2" speed="13.89" length="27.20" shape="301.60,186.40 301.60,213.60"/>
    </edge>
    <edge id=":n_ccr_11" function="internal">
        <lane id=":n_ccr_11_0" index="0" speed="10.88" length="27.14" shape="301.60,186.40 300.65,194.45 297.80,200.20 293.05,203.65 286.40,204.80"/>
    </edge>
    <edge id=":n_ccr_12" function="internal">
        <lane id=":n_ccr_12_0" index="0" speed="10.36" length="24.51" shape="301.60,186.40 300.65,193.05 297.80,197.80 293.05,200.65 286.40,201.60"/>
    </edge>
    <edge id=":n_ccr_13" function="internal">
        <lane id=":n_ccr_13_0" index="0" speed="3.65" length="2.34" shape="301.60,186.40 300.80,187.60 300.00,188.00"/>
    </edge>
    <edge id=":n_ccr_23" function="internal">
        <lane id=":n_ccr_23_0" index="0" speed="3.65" length="2.34" shape="300.00,188.00 299.20,187.60 298.40,186.40"/>
    </edge>
    <edge id=":n_ccr_14" function="internal">
        <lane id=":n_ccr_14_0" index="0" speed="6.51" length="9.03" shape="286.40,192.00 288.85,191.65 290.60,190.60 291.65,188.85 292.00,186.40"/>
    </edge>
    <edge id=":n_ccr_15" function="internal">
        <lane id=":n_ccr_15_0" index="0" speed="13.89" length="27.20" shape="286.40,192.00 313.60,192.00"/>
        <lane id=":n_ccr_15_1" index="1" speed="13.89" length="27.20" shape="286.40,195.20 313.60,195.20"/>
        <lane id=":n_ccr_15_2" index="2" speed="13.89" length="27.20" shape="286.40,198.40 313.60,198.40"/>
    </edge>
    <edge id=":n_ccr_18" function="internal">
        <lane id=":n_ccr_18_0" index="0" speed="10.36" length="7.98" shape="286.40,198.40 293.05,199.35 294.13,200.00"/>
    </edge>
    <edge id=":n_ccr_19" function="internal">
        <lane id=":n_ccr_19_0" index="0" speed="3.65" length="2.34" shape="286.40,198.40 287.60,199.20 288.00,200.00"/>
    </edge>
    <edge id=":n_ccr_24" function="internal">
        <lane id=":n_ccr_24_0" index="0" speed="10.36" length="16.53" shape="294.13,200.00 297.80,202.20 300.65,206.95 301.60,213.60"/>
    </edge>
    <edge id=":n_ccr_25" function="internal">
        <lane id=":n_ccr_25_0" index="0" speed="3.65" length="2.34" shape="288.00,200.00 287.60,200.80 286.40,201.60"/>
    </edge>
    <edge id=":n_cnc_0" function="internal">
        <lane id=":n_cnc_0_0" index="0" speed="6.51" length="9.03" shape="192.00,313.60 191.65,311.15 190.60,309.40 188.85,308.35 186.40,308.00"/>
    </edge>
    <edge id=":n_cnc_1" function="internal">
        <lane id=":n_cnc_1_0" index="0" speed="13.89" length="27.20" shape="192.00,313.60 192.00,286.40"/>
        <lane id=":n_cnc_1_1" index="1" speed="13.89" length="27.20" shape="195.20,313.60 195.20,286.40"/>
        <lane id=":n_cnc_1_2" index="2" speed="13.89" length="27.20" shape="198.40,313.60 198.40,286.40"/>
    </edge>
    <edge id=":n_cnc_4" function="internal">
        <lane id=":n_cnc_4_0" index="0" speed="10.88" length="9.57" shape="198.40,313.60 199.35,305.55 200.00,304.24"/>
    </edge>
    <edge id=":n_cnc_5" function="internal">
        <lane id=":n_cnc_5_0" index="0" speed="10.36" length="7.98" shape="198.40,313.60 199.35,306.95 200.00,305.87"/>
    </edge>
    <edge id=":n_cnc_6" function="internal">
        <lane id=":n_cnc_6_0" index="0" speed="3.65" length="2.34" shape="198.40,313.60 199.20,312.40 200.00,312.00"/>
    </edge>
    <edge id=":n_cnc_14" function="internal">
        <lane id=":n_cnc_14_0" index="0" speed="10.88" length="17.57" shape="200.00,304.24 202.20,299.80 206.95,296.35 213.60,295.20"/>
    </edge>
    <edge id=":n_cnc_15" function="internal">
        <lane id=":n_cnc_15_0" index="0" speed="10.36" length="16.53" shape="200.00,305.87 202.20,302.20 206.95,299.35 213.60,298.40"/>
    </edge>
    <edge id=":n_cnc_16" function="internal">
        <lane id=":n_cnc_16_0" index="0" speed="3.65" length="2.34" shape="200.00,312.00 200.80,312.40 201.60,313.60"/>
    </edge>
    <edge id=":n_cnc_7" function="internal">
        <lane id=":n_cnc_7_0" index="0" speed="6.51" length="9.03" shape="208.00,286.40 208.35,288.85 209.40,290.60 211.15,291.65 213.60,292.00"/>
    </edge>
    <edge id=":n_cnc_8" function="internal">
        <lane id=":n_cnc_8_0" index="0" speed="13.89" length="27.20" shape="208.00,286.40 208.00,313.60"/>
        <lane id=":n_cnc_8_1" index="1" speed="13.89" length="27.20" shape="204.80,286.40 204.80,313.60"/>
        <lane id=":n_cnc_8_2" index="2" speed="13.89" length="27.20" shape="201.60,286.40 201.60,313.60"/>
    </edge>
    <edge id=":n_cnc_11" function="internal">
        <lane id=":n_cnc_11_0" index="0" speed="10.88" length="9.57" shape="201.60,286.40 200.65,294.45 200.00,295.76"/>
    </edge>
    <edge id=":n_cnc_12" function="internal">
        <lane id=":n_cnc_12_0" index="0" speed="10.36" length="7.98" shape="201.60,286.40 200.65,293.05 200.00,294.13"/>
    </edge>
    <edge id=":n_cnc_13" function="internal">
        <lane id=":n_cnc_13_0" index="0" speed="3.65" length="2.34" shape="201.60,286.40 200.80,287.60 200.00,288.00"/>
    </edge>
    <edge id=":n_cnc_17" function="internal">
        <lane id=":n_cnc_17_0" index="0" speed="10.88" length="17.57" shape="200.00,295.76 197.80,300.20 193.05,303.65 186.40,304.80"/>
    </edge>
    <edge id=":n_cnc_18" function="internal">
        <lane id=":n_cnc_18_0" index="0" speed="10.36" length="16.53" shape="200.00,294.13 197.80,297.80 193.05,300.65 186.40,301.60"/>
    </edge>
    <edge id=":n_cnc_19" function="internal">
        <lane id=":n_cnc_19_0" index="0" speed="3.65" length="2.34" shape="200.00,288.00 199.20,287.60 198.40,286.40"/>
    </edge>
    <edge id=":n_cnl_0" function="internal">
        <lane id=":n_cnl_0_0" index="0" speed="6.51" length="9.03" shape="92.00,313.60 91.65,311.15 90.60,309.40 88.85,308.35 86.40,308.00"/>
    </edge>
    <edge id=":n_cnl_1" function="internal">
        <lane id=":n_cnl_1_0" index="0" speed="13.89" length="27.20" shape="92.00,313.60 92.00,286.40"/>
        <lane id=":n_cnl_1_1" index="1" speed="13.89" length="27.20" shape="95.20,313.60 95.20,286.40"/>
        <lane id=":n_cnl_1_2" index="2" speed="13.89" length="27.20" shape="98.40,313.60 98.40,286.40"/>
    </edge>
    <edge id=":n_cnl_4" function="internal">
        <lane id=":n_cnl_4_0" index="0" speed="10.88" length="9.57" shape="98.40,313.60 99.35,305.55 100.00,304.24"/>
    </edge>
    <edge id=":n_cnl_5" function="internal">
        <lane id=":n_cnl_5_0" index="0" speed="3.65" length="2.34" shape="98.40,313.60 99.20,312.40 100.00,312.00"/>
    </edge>
    <edge id=":n_cnl_30" function="internal">
        <lane id=":n_cnl_30_0" index="0" speed="10.88" length="17.57" shape="100.00,304.24 102.20,299.80 106.95,296.35 113.60,295.20"/>
    </edge>
    <edge id=":n_cnl_31" function="internal">
        <lane id=":n_cnl_31_0" index="0" speed="3.65" length="2.34" shape="100.00,312.00 100.80,312.40 101.60,313.60"/>
    </edge>
    <edge id=":n_cnl_6" function="internal">
        <lane id=":n_cnl_6_0" index="0" speed="6.51" length="9.03" shape="113.60,308.00 111.15,308.35 109.40,309.40 108.35,311.15 108.00,313.60"/>
    </edge>
    <edge id=":n_cnl_7" function="internal">
        <lane id=":n_cnl_7_0" index="0" speed="13.89" length="27.20" shape="113.60,308.00 86.40,308.00"/>
        <lane id=":n_cnl_7_1" index="1" speed="13.89" length="27.20" shape="113.60,304.80 86.40,304.80"/>
        <lane id=":n_cnl_7_2" index="2" speed="13.89" length="27.20" shape="113.60,301.60 86.40,301.60"/>
    </edge>
    <edge id=":n_cnl_10" function="internal">
        <lane id=":n_cnl_10_0" index="0" speed="10.88" length="27.14" shape="113.60,301.60 105.55,300.65 99.80,297.80 96.35,293.05 95.20,286.40"/>
    </edge>
    <edge id=":n_cnl_11" function="internal">
        <lane id=":n_cnl_11_0" index="0" speed="3.24" length="3.20" shape="113.60,301.60 113.60,298.40"/>
    </edge>
    <edge id=":n_cnl_12" function="internal">
        <lane id=":n_cnl_12_0" index="0" speed="7.33" length="11.73" shape="113.60,308.00 109.75,308.35 107.00,309.40 105.35,311.15 104.80,313.60"/>
    </edge>
    <edge id=":n_cnl_13" function="internal">
        <lane id=":n_cnl_13_0" index="0" speed="13.89" length="27.20" shape="113.60,308.00 86.40,308.00"/>
        <lane id=":n_cnl_13_1" index="1" speed="13.89" length="27.20" shape="113.60,304.80 86.40,304.80"/>
        <lane id=":n_cnl_13_2" index="2" speed="13.89" length="27.20" shape="113.60,301.60 86.40,301.60"/>
    </edge>
    <edge id=":n_cnl_16" function="internal">
        <lane id=":n_cnl_16_0" index="0" speed="10.36" length="7.98" shape="113.60,301.60 106.95,300.65 105.87,300.00"/>
    </edge>
    <edge id=":n_cnl_17" function="internal">
        <lane id=":n_cnl_17_0" index="0" speed="3.65" length="2.34" shape="113.60,301.60 112.40,300.80 112.00,300.00"/>
    </edge>
    <edge id=":n_cnl_32" function="internal">
        <lane id=":n_cnl_32_0" index="0" speed="10.36" length="16.53" shape="105.87,300.00 102.20,297.80 99.35,293.05 98.40,286.40"/>
    </edge>
    <edge id=":n_cnl_33" function="internal">
        <lane id=":n_cnl_33_0" index="0" speed="3.65" length="2.34" shape="112.00,300.00 112.40,299.20 113.60,298.40"/>
    </edge>
    <edge id=":n_cnl_18" function="internal">
        <lane id=":n_cnl_18_0" index="0" speed="6.51" length="9.03" shape="108.00,286.40 108.35,288.85 109.40,290.60 111.15,291.65 113.60,292.00"/>
    </edge>
    <edge id=":n_cnl_19" function="internal">
        <lane id=":n_cnl_19_0" index="0" speed="13.89" length="27.20" shape="108.00,286.40 108.00,313.60"/>
        <lane id=":n_cnl_19_1" index="1" speed="13.89" length="27.20" shape="104.80,286.40 104.80,313.60"/>
        <lane id=":n_cnl_19_2" index="2" speed="13.89" length="27.20" shape="101.60,286.40 101.60,313.60"/>
    </edge>
    <edge id=":n_cnl_22" function="internal">
        <lane id=":n_cnl_22_0" index="0" speed="10.36" length="7.98" shape="101.60,286.40 100.65,293.05 100.00,294.13"/>
    </edge>
    <edge id=":n_cnl_23" function="internal">
        <lane id=":n_cnl_23_0" index="0" speed="3.65" length="2.34" shape="101.60,286.40 100.80,287.60 100.00,288.00"/>
    </edge>
    <edge id=":n_cnl_34" function="internal">
        <lane id=":n_cnl_34_0" index="0" speed="10.36" length="16.53" shape="100.00,294.13 97.80,297.80 93.05,300.65 86.40,301.60"/>
    </edge>
    <edge id=":n_cnl_35" function="internal">
        <lane id=":n_cnl_35_0" index="0" speed="3.65" length="2.34" shape="100.00,288.00 99.20,287.60 98.40,286.40"/>
    </edge>
    <edge id=":n_cnl_24" function="internal">
        <lane id=":n_cnl_24_0" index="0" speed="6.51" length="9.03" shape="86.40,292.00 88.85,291.65 90.60,290.60 91.65,288.85 92.00,286.40"/>
    </edge>
    <edge id=":n_cnl_25" function="internal">
        <lane id=":n_cnl_25_0" index="0" speed="13.89" length="27.20" shape="86.40,292.00 113.60,292.00"/>
        <lane id=":n_cnl_25_1" index="1" speed="13.89" length="27.20" shape="86.40,295.20 113.60,295.20"/>
        <lane id=":n_cnl_25_2" index="2" speed="13.89" length="27.20" shape="86.40,298.40 113.60,298.40"/>
    </edge>
    <edge id=":n_cnl_28" function="internal">
        <lane id=":n_cnl_28_0" index="0" speed="10.36" length="7.98" shape="86.40,298.40 93.05,299.35 94.13,300.00"/>
    </edge>
    <edge id=":n_cnl_29" function="internal">
        <lane id=":n_cnl_29_0" index="0" speed="3.65" length="2.34" shape="86.40,298.40 87.60,299.20 88.00,300.00"/>
    </edge>
    <edge id=":n_cnl_36" function="internal">
        <lane id=":n_cnl_36_0" index="0" speed="10.36" length="16.53" shape="94.13,300.00 97.80,302.20 100.65,306.95 101.60,313.60"/>
    </edge>
    <edge id=":n_cnl_37" function="internal">
        <lane id=":n_cnl_37_0" index="0" speed="3.65" length="2.34" shape="88.00,300.00 87.60,300.80 86.40,301.60"/>
    </edge>
    <edge id=":n_cnr_0" function="internal">
        <lane id=":n_cnr_0_0" index="0" speed="6.51" length="9.03" shape="292.00,313.60 291.65,311.15 290.60,309.40 288.85,308.35 286.40,308.00"/>
    </edge>
    <edge id=":n_cnr_1" function="internal">
        <lane id=":n_cnr_1_0" index="0" speed="13.89" length="27.20" shape="292.00,313.60 292.00,286.40"/>
        <lane id=":n_cnr_1_1" index="1" speed="13.89" length="27.20" shape="295.20,313.60 295.20,286.40"/>
        <lane id=":n_cnr_1_2" index="2" speed="13.89" length="27.20" shape="298.40,313.60 298.40,286.40"/>
    </edge>
    <edge id=":n_cnr_4" function="internal">
        <lane id=":n_cnr_4_0" index="0" speed="10.36" length="7.98" shape="298.40,313.60 299.35,306.95 300.00,305.87"/>
    </edge>
    <edge id=":n_cnr_5" function="internal">
        <lane id=":n_cnr_5_0" index="0" speed="3.65" length="2.34" shape="298.40,313.60 299.20,312.40 300.00,312.00"/>
    </edge>
    <edge id=":n_cnr_30" function="internal">
        <lane id=":n_cnr_30_0" index="0" speed="10.36" length="16.53" shape="300.00,305.87 302.20,302.20 306.95,299.35 313.60,298.40"/>
    </edge>
    <edge id=":n_cnr_31" function="internal">
        <lane id=":n_cnr_31_0" index="0" speed="3.65" length="2.34" shape="300.00,312.00 300.80,312.40 301.60,313.60"/>
    </edge>
    <edge id=":n_cnr_6" function="internal">
        <lane id=":n_cnr_6_0" index="0" speed="6.51" length="9.03" shape="313.60,308.00 311.15,308.35 309.40,309.40 308.35,311.15 308.00,313.60"/>
    </edge>
    <edge id=":n_cnr_7" function="internal">
        <lane id=":n_cnr_7_0" index="0" speed="13.89" length="27.20" shape="313.60,308.00 286.40,308.00"/>
        <lane id=":n_cnr_7_1" index="1" speed="13.89" length="27.20" shape="313.60,304.80 286.40,304.80"/>
        <lane id=":n_cnr_7_2" index="2" speed="13.89" length="27.20" shape="313.60,301.60 286.40,301.60"/>
    </edge>
    <edge id=":n_cnr_10" function="internal">
        <lane id=":n_cnr_10_0" index="0" speed="10.36" length="7.98" shape="313.60,301.60 306.95,300.65 305.87,300.00"/>
    </edge>
    <edge id=":n_cnr_11" function="internal">
        <lane id=":n_cnr_11_0" index="0" speed="3.65" length="2.34" shape="313.60,301.60 312.40,300.80 312.00,300.00"/>
    </edge>
    <edge id=":n_cnr_32" function="internal">
        <lane id=":n_cnr_32_0" index="0" speed="10.36" length="16.53" shape="305.87,300.00 302.20,297.80 299.35,293.05 298.40,286.40"/>
    </edge>
    <edge id=":n_cnr_33" function="internal">
        <lane id=":n_cnr_33_0" index="0" speed="3.65" length="2.34" shape="312.00,300.00 312.40,299.20 313.60,298.40"/>
    </edge>
    <edge id=":n_cnr_12" function="internal">
        <lane id=":n_cnr_12_0" index="0" speed="6.51" length="9.03" shape="308.00,286.40 308.35,288.85 309.40,290.60 311.15,291.65 313.60,292.00"/>
    </edge>
    <edge id=":n_cnr_13" function="internal">
        <lane id=":n_cnr_13_0" index="0" speed="13.89" length="27.20" shape="308.00,286.40 308.00,313.60"/>
        <lane id=":n_cnr_13_1" index="1" speed="13.89" length="27.20" shape="304.80,286.40 304.80,313.60"/>
        <lane id=":n_cnr_13_2" index="2" speed="13.89" length="27.20" shape="301.60,286.40 301.60,313.60"/>
    </edge>
    <edge id=":n_cnr_16" function="internal">
        <lane id=":n_cnr_16_0" index="0" speed="10.88" length="9.57" shape="301.60,286.40 300.65,294.45 300.00,295.76"/>
    </edge>
    <edge id=":n_cnr_17" function="internal">
        <lane id=":n_cnr_17_0" index="0" speed="3.65" length="2.34" shape="301.60,286.40 300.80,287.60 300.00,288.00"/>
    </edge>
    <edge id=":n_cnr_34" function="internal">
        <lane id=":n_cnr_34_0" index="0" speed="10.88" length="17.57" shape="300.00,295.76 297.80,300.20 293.05,303.65 286.40,304.80"/>
    </edge>
    <edge id=":n_cnr_35" function="internal">
        <lane id=":n_cnr_35_0" index="0" speed="3.65" length="2.34" shape="300.00,288.00 299.20,287.60 298.40,286.40"/>
    </edge>
    <edge id=":n_cnr_18" function="internal">
        <lane id=":n_cnr_18_0" index="0" speed="6.51" length="9.03" shape="286.40,292.00 288.85,291.65 290.60,290.60 291.65,288.85 292.00,286.40"/>
    </edge>
    <edge id=":n_cnr_19" function="internal">
        <lane id=":n_cnr_19_0" index="0" speed="13.89" length="27.20" shape="286.40,292.00 313.60,292.00"/>
        <lane id=":n_cnr_19_1" index="1" speed="13.89" length="27.20" shape="286.40,295.20 313.60,295.20"/>
        <lane id=":n_cnr_19_2" index="2" speed="13.89" length="27.20" shape="286.40,298.40 313.60,298.40"/>
    </edge>
    <edge id=":n_cnr_22" function="internal">
        <lane id=":n_cnr_22_0" index="0" speed="10.88" length="27.14" shape="286.40,298.40 294.45,299.35 300.20,302.20 303.65,306.95 304.80,313.60"/>
    </edge>
    <edge id=":n_cnr_23" function="internal">
        <lane id=":n_cnr_23_0" index="0" speed="3.24" length="3.20" shape="286.40,298.40 286.40,301.60"/>
    </edge>
    <edge id=":n_cnr_24" function="internal">
        <lane id=":n_cnr_24_0" index="0" speed="7.33" length="11.73" shape="286.40,292.00 290.25,291.65 293.00,290.60 294.65,288.85 295.20,286.40"/>
    </edge>
    <edge id=":n_cnr_25" function="internal">
        <lane id=":n_cnr_25_0" index="0" speed="13.89" length="27.20" shape="286.40,292.00 313.60,292.00"/>
        <lane id=":n_cnr_25_1" index="1" speed="13.89" length="27.20" shape="286.40,295.20 313.60,295.20"/>
        <lane id=":n_cnr_25_2" index="2" speed="13.89" length="27.20" shape="286.40,298.40 313.60,298.40"/>
    </edge>
    <edge id=":n_cnr_28" function="internal">