<routes>
    <flows>
        <flow id="n_nl" from="n_nl_to_n_cnl" to="n_csl_to_n_sl" begin="0" end="9000" number="1800" />
        <flow id="n_nc" from="n_nc_to_n_cnc" to="n_csc_to_n_sc" begin="0" end="9000" number="1800" />
        <flow id="n_nr" from="n_nr_to_n_cnr" to="n_csr_to_n_sr" begin="0" end="9000" number="1800" />
        <flow id="n_ln" from="n_ln_to_n_cnl" to="n_cnr_to_n_rn" begin="0" end="9000" number="1800" />
        <flow id="n_lc" from="n_lc_to_n_ccl" to="n_ccr_to_n_rc" begin="0" end="9000" number="1800" />
        <flow id="n_ls" from="n_ls_to_n_csl" to="n_csr_to_n_rs" begin="0" end="9000" number="1800" />
        <flow id="n_rn" from="n_rn_to_n_cnr" to="n_cnl_to_n_ln" begin="0" end="9000" number="1800" />
        <flow id="n_rc" from="n_rc_to_n_ccr" to="n_ccl_to_n_lc" begin="0" end="9000" number="1800" />
        <flow id="n_rs" from="n_rs_to_n_csr" to="n_csl_to_n_ls" begin="0" end="9000" number="1800" />
        <flow id="n_sl" from="n_sl_to_n_csl" to="n_cnl_to_n_nl" begin="0" end="9000" number="1800" />
        <flow id="n_sc" from="n_sc_to_n_csc" to="n_cnc_to_n_nc" begin="0" end="9000" number="1800" />
        <flow id="n_sr" from="n_sr_to_n_csr" to="n_cnr_to_n_nr" begin="0" end="9000" number="1800" />
    </flows>
</routes>