<?xml version="1.0" encoding="UTF-8"?>

<!-- generated on 01/06/21 16:26:00 by Eclipse SUMO netconvert Version 1.8.0
<configuration xmlns:xsi="http://www.w3.org/2001/XMLSchema-instance" xsi:noNamespaceSchemaLocation="http://sumo.dlr.de/xsd/netconvertConfiguration.xsd">

    <input>
        <node-files value="test.nod.xml"/>
        <edge-files value="test.edg.xml"/>
    </input>

    <output>
        <output-file value="test.net.xml"/>
    </output>

    <report>
        <aggregate-warnings value="5"/>
    </report>

</configuration>
-->

<net version="1.6" junctionCornerDetail="5" limitTurnSpeed="5.50" xmlns:xsi="http://www.w3.org/2001/XMLSchema-instance" xsi:noNamespaceSchemaLocation="http://sumo.dlr.de/xsd/net_file.xsd">

    <location netOffset="300.00,300.00" convBoundary="0.00,0.00,600.00,600.00" origBoundary="-300.00,-300.00,300.00,300.00" projParameter="!"/>

    <edge id=":n_cnl_0" function="internal">
        <lane id=":n_cnl_0_0" index="0" speed="6.51" length="9.03" shape="192.00,413.60 191.65,411.15 190.60,409.40 188.85,408.35 186.40,408.00"/>
    </edge>
    <edge id=":n_cnl_1" function="internal">
        <lane id=":n_cnl_1_0" index="0" speed="13.89" length="27.20" shape="192.00,413.60 192.00,386.40"/>
        <lane id=":n_cnl_1_1" index="1" speed="13.89" length="27.20" shape="195.20,413.60 195.20,386.40"/>
        <lane id=":n_cnl_1_2" index="2" speed="13.89" length="27.20" shape="198.40,413.60 198.40,386.40"/>
    </edge>
    <edge id=":n_cnl_4" function="internal">
        <lane id=":n_cnl_4_0" index="0" speed="10.36" length="7.98" shape="198.40,413.60 199.35,406.95 200.00,405.87"/>
    </edge>
    <edge id=":n_cnl_5" function="internal">
        <lane id=":n_cnl_5_0" index="0" speed="3.65" length="2.34" shape="198.40,413.60 199.20,412.40 200.00,412.00"/>
    </edge>
    <edge id=":n_cnl_24" function="internal">
        <lane id=":n_cnl_24_0" index="0" speed="10.36" length="16.53" shape="200.00,405.87 202.20,402.20 206.95,399.35 213.60,398.40"/>
    </edge>
    <edge id=":n_cnl_25" function="internal">
        <lane id=":n_cnl_25_0" index="0" speed="3.65" length="2.34" shape="200.00,412.00 200.80,412.40 201.60,413.60"/>
    </edge>
    <edge id=":n_cnl_6" function="internal">
        <lane id=":n_cnl_6_0" index="0" speed="6.51" length="9.03" shape="213.60,408.00 211.15,408.35 209.40,409.40 208.35,411.15 208.00,413.60"/>
    </edge>
    <edge id=":n_cnl_7" function="internal">
        <lane id=":n_cnl_7_0" index="0" speed="13.89" length="27.20" shape="213.60,408.00 186.40,408.00"/>
        <lane id=":n_cnl_7_1" index="1" speed="13.89" length="27.20" shape="213.60,404.80 186.40,404.80"/>
        <lane id=":n_cnl_7_2" index="2" speed="13.89" length="27.20" shape="213.60,401.60 186.40,401.60"/>
    </edge>
    <edge id=":n_cnl_10" function="internal">
        <lane id=":n_cnl_10_0" index="0" speed="10.36" length="7.98" shape="213.60,401.60 206.95,400.65 205.87,400.00"/>
    </edge>
    <edge id=":n_cnl_11" function="internal">
        <lane id=":n_cnl_11_0" index="0" speed="3.65" length="2.34" shape="213.60,401.60 212.40,400.80 212.00,400.00"/>
    </edge>
    <edge id=":n_cnl_26" function="internal">
        <lane id=":n_cnl_26_0" index="0" speed="10.36" length="16.53" shape="205.87,400.00 202.20,397.80 199.35,393.05 198.40,386.40"/>
    </edge>
    <edge id=":n_cnl_27" function="internal">
        <lane id=":n_cnl_27_0" index="0" speed="3.65" length="2.34" shape="212.00,400.00 212.40,399.20 213.60,398.40"/>
    </edge>
    <edge id=":n_cnl_12" function="internal">
        <lane id=":n_cnl_12_0" index="0" speed="6.51" length="9.03" shape="208.00,386.40 208.35,388.85 209.40,390.60 211.15,391.65 213.60,392.00"/>
    </edge>
    <edge id=":n_cnl_13" function="internal">
        <lane id=":n_cnl_13_0" index="0" speed="13.89" length="27.20" shape="208.00,386.40 208.00,413.60"/>
        <lane id=":n_cnl_13_1" index="1" speed="13.89" length="27.20" shape="204.80,386.40 204.80,413.60"/>
        <lane id=":n_cnl_13_2" index="2" speed="13.89" length="27.20" shape="201.60,386.40 201.60,413.60"/>
    </edge>
    <edge id=":n_cnl_16" function="internal">
        <lane id=":n_cnl_16_0" index="0" speed="10.36" length="7.98" shape="201.60,386.40 200.65,393.05 200.00,394.13"/>
    </edge>
    <edge id=":n_cnl_17" function="internal">
        <lane id=":n_cnl_17_0" index="0" speed="3.65" length="2.34" shape="201.60,386.40 200.80,387.60 200.00,388.00"/>
    </edge>
    <edge id=":n_cnl_28" function="internal">
        <lane id=":n_cnl_28_0" index="0" speed="10.36" length="16.53" shape="200.00,394.13 197.80,397.80 193.05,400.65 186.40,401.60"/>
    </edge>
    <edge id=":n_cnl_29" function="internal">
        <lane id=":n_cnl_29_0" index="0" speed="3.65" length="2.34" shape="200.00,388.00 199.20,387.60 198.40,386.40"/>
    </edge>
    <edge id=":n_cnl_18" function="internal">
        <lane id=":n_cnl_18_0" index="0" speed="6.51" length="9.03" shape="186.40,392.00 188.85,391.65 190.60,390.60 191.65,388.85 192.00,386.40"/>
    </edge>
    <edge id=":n_cnl_19" function="internal">
        <lane id=":n_cnl_19_0" index="0" speed="13.89" length="27.20" shape="186.40,392.00 213.60,392.00"/>
        <lane id=":n_cnl_19_1" index="1" speed="13.89" length="27.20" shape="186.40,395.20 213.60,395.20"/>
        <lane id=":n_cnl_19_2" index="2" speed="13.89" length="27.20" shape="186.40,398.40 213.60,398.40"/>
    </edge>
    <edge id=":n_cnl_22" function="internal">
        <lane id=":n_cnl_22_0" index="0" speed="10.36" length="7.98" shape="186.40,398.40 193.05,399.35 194.13,400.00"/>
    </edge>
    <edge id=":n_cnl_23" function="internal">
        <lane id=":n_cnl_23_0" index="0" speed="3.65" length="2.34" shape="186.40,398.40 187.60,399.20 188.00,400.00"/>
    </edge>
    <edge id=":n_cnl_30" function="internal">
        <lane id=":n_cnl_30_0" index="0" speed="10.36" length="16.53" shape="194.13,400.00 197.80,402.20 200.65,406.95 201.60,413.60"/>
    </edge>
    <edge id=":n_cnl_31" function="internal">
        <lane id=":n_cnl_31_0" index="0" speed="3.65" length="2.34" shape="188.00,400.00 187.60,400.80 186.40,401.60"/>
    </edge>
    <edge id=":n_cnr_0" function="internal">
        <lane id=":n_cnr_0_0" index="0" speed="6.51" length="9.03" shape="392.00,413.60 391.65,411.15 390.60,409.40 388.85,408.35 386.40,408.00"/>
    </edge>
    <edge id=":n_cnr_1" function="internal">
        <lane id=":n_cnr_1_0" index="0" speed="13.89" length="27.20" shape="392.00,413.60 392.00,386.40"/>
        <lane id=":n_cnr_1_1" index="1" speed="13.89" length="27.20" shape="395.20,413.60 395.20,386.40"/>
        <lane id=":n_cnr_1_2" index="2" speed="13.89" length="27.20" shape="398.40,413.60 398.40,386.40"/>
    </edge>
    <edge id=":n_cnr_4" function="internal">
        <lane id=":n_cnr_4_0" index="0" speed="10.36" length="7.98" shape="398.40,413.60 399.35,406.95 400.00,405.87"/>
    </edge>
    <edge id=":n_cnr_5" function="internal">
        <lane id=":n_cnr_5_0" index="0" speed="3.65" length="2.34" shape="398.40,413.60 399.20,412.40 400.00,412.00"/>
    </edge>
    <edge id=":n_cnr_24" function="internal">
        <lane id=":n_cnr_24_0" index="0" speed="10.36" length="16.53" shape="400.00,405.87 402.20,402.20 406.95,399.35 413.60,398.40"/>
    </edge>
    <edge id=":n_cnr_25" function="internal">
        <lane id=":n_cnr_25_0" index="0" speed="3.65" length="2.34" shape="400.00,412.00 400.80,412.40 401.60,413.60"/>
    </edge>
    <edge id=":n_cnr_6" function="internal">
        <lane id=":n_cnr_6_0" index="0" speed="6.51" length="9.03" shape="413.60,408.00 411.15,408.35 409.40,409.40 408.35,411.15 408.00,413.60"/>
    </edge>
    <edge id=":n_cnr_7" function="internal">
        <lane id=":n_cnr_7_0" index="0" speed="13.89" length="27.20" shape="413.60,408.00 386.40,408.00"/>
        <lane id=":n_cnr_7_1" index="1" speed="13.89" length="27.20" shape="413.60,404.80 386.40,404.80"/>
        <lane id=":n_cnr_7_2" index="2" speed="13.89" length="27.20" shape="413.60,401.60 386.40,401.60"/>
    </edge>
    <edge id=":n_cnr_10" function="internal">
        <lane id=":n_cnr_10_0" index="0" speed="10.36" length="7.98" shape="413.60,401.60 406.95,400.65 405.87,400.00"/>
    </edge>
    <edge id=":n_cnr_11" function="internal">
        <lane id=":n_cnr_11_0" index="0" speed="3.65" length="2.34" shape="413.60,401.60 412.40,400.80 412.00,400.00"/>
    </edge>
    <edge id=":n_cnr_26" function="internal">
        <lane id=":n_cnr_26_0" index="0" speed="10.36" length="16.53" shape="405.87,400.00 402.20,397.80 399.35,393.05 398.40,386.40"/>
    </edge>
    <edge id=":n_cnr_27" function="internal">
        <lane id=":n_cnr_27_0" index="0" speed="3.65" length="2.34" shape="412.00,400.00 412.40,399.20 413.60,398.40"/>
    </edge>
    <edge id=":n_cnr_12" function="internal">
        <lane id=":n_cnr_12_0" index="0" speed="6.51" length="9.03" shape="408.00,386.40 408.35,388.85 409.40,390.60 411.15,391.65 413.60,392.00"/>
    </edge>
    <edge id=":n_cnr_13" function="internal">
        <lane id=":n_cnr_13_0" index="0" speed="13.89" length="27.20" shape="408.00,386.40 408.00,413.60"/>
        <lane id=":n_cnr_13_1" index="1" speed="13.89" length="27.20" shape="404.80,386.40 404.80,413.60"/>
        <lane id=":n_cnr_13_2" index="2" speed="13.89" length="27.20" shape="401.60,386.40 401.60,413.60"/>
    </edge>
    <edge id=":n_cnr_16" function="internal">
        <lane id=":n_cnr_16_0" index="0" speed="10.36" length="7.98" shape="401.60,386.40 400.65,393.05 400.00,394.13"/>
    </edge>
    <edge id=":n_cnr_17" function="internal">
        <lane id=":n_cnr_17_0" index="0" speed="3.65" length="2.34" shape="401.60,386.40 400.80,387.60 400.00,388.00"/>
    </edge>
    <edge id=":n_cnr_28" function="internal">
        <lane id=":n_cnr_28_0" index="0" speed="10.36" length="16.53" shape="400.00,394.13 397.80,397.80 393.05,400.65 386.40,401.60"/>
    </edge>
    <edge id=":n_cnr_29" function="internal">
        <lane id=":n_cnr_29_0" index="0" speed="3.65" length="2.34" shape="400.00,388.00 399.20,387.60 398.40,386.40"/>
    </edge>
    <edge id=":n_cnr_18" function="internal">
        <lane id=":n_cnr_18_0" index="0" speed="6.51" length="9.03" shape="386.40,392.00 388.85,391.65 390.60,390.60 391.65,388.85 392.00,386.40"/>
    </edge>
    <edge id=":n_cnr_19" function="internal">
        <lane id=":n_cnr_19_0" index="0" speed="13.89" length="27.20" shape="386.40,392.00 413.60,392.00"/>
        <lane id=":n_cnr_19_1" index="1" speed="13.89" length="27.20" shape="386.40,395.20 413.60,395.20"/>
        <lane id=":n_cnr_19_2" index="2" speed="13.89" length="27.20" shape="386.40,398.40 413.60,398.40"/>
    </edge>
    <edge id=":n_cnr_22" function="internal">
        <lane id=":n_cnr_22_0" index="0" speed="10.36" length="7.98" shape="386.40,398.40 393.05,399.35 394.13,400.00"/>
    </edge>
    <edge id=":n_cnr_23" function="internal">
        <lane id=":n_cnr_23_0" index="0" speed="3.65" length="2.34" shape="386.40,398.40 387.60,399.20 388.00,400.00"/>
    </edge>
    <edge id=":n_cnr_30" function="internal">
        <lane id=":n_cnr_30_0" index="0" speed="10.36" length="16.53" shape="394.13,400.00 397.80,402.20 400.65,406.95 401.60,413.60"/>
    </edge>
    <edge id=":n_cnr_31" function="internal">
        <lane id=":n_cnr_31_0" index="0" speed="3.65" length="2.34" shape="388.00,400.00 387.60,400.80 386.40,401.60"/>
    </edge>
    <edge id=":n_csl_0" function="internal">
        <lane id=":n_csl_0_0" index="0" speed="6.51" length="9.03" shape="192.00,213.60 191.65,211.15 190.60,209.40 188.85,208.35 186.40,208.00"/>
    </edge>
    <edge id=":n_csl_1" function="internal">
        <lane id=":n_csl_1_0" index="0" speed="13.89" length="27.20" shape="192.00,213.60 192.00,186.40"/>
        <lane id=":n_csl_1_1" index="1" speed="13.89" length="27.20" shape="195.20,213.60 195.20,186.40"/>
        <lane id=":n_csl_1_2" index="2" speed="13.89" length="27.20" shape="198.40,213.60 198.40,186.40"/>
    </edge>
    <edge id=":n_csl_4" function="internal">
        <lane id=":n_csl_4_0" index="0" speed="10.36" length="7.98" shape="198.40,213.60 199.35,206.95 200.00,205.87"/>
    </edge>
    <edge id=":n_csl_5" function="internal">
        <lane id=":n_csl_5_0" index="0" speed="3.65" length="2.34" shape="198.40,213.60 199.20,212.40 200.00,212.00"/>
    </edge>
    <edge id=":n_csl_24" function="internal">
        <lane id=":n_csl_24_0" index="0" speed="10.36" length="16.53" shape="200.00,205.87 202.20,202.20 206.95,199.35 213.60,198.40"/>
    </edge>
    <edge id=":n_csl_25" function="internal">
        <lane id=":n_csl_25_0" index="0" speed="3.65" length="2.34" shape="200.00,212.00 200.80,212.40 201.60,213.60"/>
    </edge>
    <edge id=":n_csl_6" function="internal">
        <lane id=":n_csl_6_0" index="0" speed="6.51" length="9.03" shape="213.60,208.00 211.15,208.35 209.40,209.40 208.35,211.15 208.00,213.60"/>
    </edge>
    <edge id=":n_csl_7" function="internal">
        <lane id=":n_csl_7_0" index="0" speed="13.89" length="27.20" shape="213.60,208.00 186.40,208.00"/>
        <lane id=":n_csl_7_1" index="1" speed="13.89" length="27.20" shape="213.60,204.80 186.40,204.80"/>
        <lane id=":n_csl_7_2" index="2" speed="13.89" length="27.20" shape="213.60,201.60 186.40,201.60"/>
    </edge>
    <edge id=":n_csl_10" function="internal">
        <lane id=":n_csl_10_0" index="0" speed="10.36" length="7.98" shape="213.60,201.60 206.95,200.65 205.87,200.00"/>
    </edge>
    <edge id=":n_csl_11" function="internal">
        <lane id=":n_csl_11_0" index="0" speed="3.65" length="2.34" shape="213.60,201.60 212.40,200.80 212.00,200.00"/>
    </edge>
    <edge id=":n_csl_26" function="internal">
        <lane id=":n_csl_26_0" index="0" speed="10.36" length="16.53" shape="205.87,200.00 202.20,197.80 199.35,193.05 198.40,186.40"/>
    </edge>
    <edge id=":n_csl_27" function="internal">
        <lane id=":n_csl_27_0" index="0" speed="3.65" length="2.34" shape="212.00,200.00 212.40,199.20 213.60,198.40"/>
    </edge>
    <edge id=":n_csl_12" function="internal">
        <lane id=":n_csl_12_0" index="0" speed="6.51" length="9.03" shape="208.00,186.40 208.35,188.85 209.40,190.60 211.15,191.65 213.60,192.00"/>
    </edge>
    <edge id=":n_csl_13" function="internal">
        <lane id=":n_csl_13_0" index="0" speed="13.89" length="27.20" shape="208.00,186.40 208.00,213.60"/>
        <lane id=":n_csl_13_1" index="1" speed="13.89" length="27.20" shape="204.80,186.40 204.80,213.60"/>
        <lane id=":n_csl_13_2" index="2" speed="13.89" length="27.20" shape="201.60,186.40 201.60,213.60"/>
    </edge>
    <edge id=":n_csl_16" function="internal">
        <lane id=":n_csl_16_0" index="0" speed="10.36" length="7.98" shape="201.60,186.40 200.65,193.05 200.00,194.13"/>
    </edge>
    <edge id=":n_csl_17" function="internal">
        <lane id=":n_csl_17_0" index="0" speed="3.65" length="2.34" shape="201.60,186.40 200.80,187.60 200.00,188.00"/>
    </edge>
    <edge id=":n_csl_28" function="internal">
        <lane id=":n_csl_28_0" index="0" speed="10.36" length="16.53" shape="200.00,194.13 197.80,197.80 193.05,200.65 186.40,201.60"/>
    </edge>
    <edge id=":n_csl_29" function="internal">
        <lane id=":n_csl_29_0" index="0" speed="3.65" length="2.34" shape="200.00,188.00 199.20,187.60 198.40,186.40"/>
    </edge>
    <edge id=":n_csl_18" function="internal">
        <lane id=":n_csl_18_0" index="0" speed="6.51" length="9.03" shape="186.40,192.00 188.85,191.65 190.60,190.60 191.65,188.85 192.00,186.40"/>
    </edge>
    <edge id=":n_csl_19" function="internal">
        <lane id=":n_csl_19_0" index="0" speed="13.89" length="27.20" shape="186.40,192.00 213.60,192.00"/>
        <lane id=":n_csl_19_1" index="1" speed="13.89" length="27.20" shape="186.40,195.20 213.60,195.20"/>
        <lane id=":n_csl_19_2" index="2" speed="13.89" length="27.20" shape="186.40,198.40 213.60,198.40"/>
    </edge>
    <edge id=":n_csl_22" function="internal">
        <lane id=":n_csl_22_0" index="0" speed="10.36" length="7.98" shape="186.40,198.40 193.05,199.35 194.13,200.00"/>
    </edge>
    <edge id=":n_csl_23" function="internal">
        <lane id=":n_csl_23_0" index="0" speed="3.65" length="2.34" shape="186.40,198.40 187.60,199.20 188.00,200.00"/>
    </edge>
    <edge id=":n_csl_30" function="internal">
        <lane id=":n_csl_30_0" index="0" speed="10.36" length="16.53" shape="194.13,200.00 197.80,202.20 200.65,206.95 201.60,213.60"/>
    </edge>
    <edge id=":n_csl_31" function="internal">
        <lane id=":n_csl_31_0" index="0" speed="3.65" length="2.34" shape="188.00,200.00 187.60,200.80 186.40,201.60"/>
    </edge>
    <edge id=":n_csr_0" function="internal">
        <lane id=":n_csr_0_0" index="0" speed="6.51" length="9.03" shape="392.00,213.60 391.65,211.15 390.60,209.40 388.85,208.35 386.40,208.00"/>
    </edge>
    <edge id=":n_csr_1" function="internal">
        <lane id=":n_csr_1_0" index="0" speed="13.89" length="27.20" shape="392.00,213.60 392.00,186.40"/>
        <lane id=":n_csr_1_1" index="1" speed="13.89" length="27.20" shape="395.20,213.60 395.20,186.40"/>
        <lane id=":n_csr_1_2" index="2" speed="13.89" length="27.20" shape="398.40,213.60 398.40,186.40"/>
    </edge>
    <edge id=":n_csr_4" function="internal">
        <lane id=":n_csr_4_0" index="0" speed="10.36" length="7.98" shape="398.40,213.60 399.35,206.95 400.00,205.87"/>
    </edge>
    <edge id=":n_csr_5" function="internal">
        <lane id=":n_csr_5_0" index="0" speed="3.65" length="2.34" shape="398.40,213.60 399.20,212.40 400.00,212.00"/>
    </edge>
    <edge id=":n_csr_24" function="internal">
        <lane id=":n_csr_24_0" index="0" speed="10.36" length="16.53" shape="400.00,205.87 402.20,202.20 406.95,199.35 413.60,198.40"/>
    </edge>
    <edge id=":n_csr_25" function="internal">
        <lane id=":n_csr_25_0" index="0" speed="3.65" length="2.34" shape="400.00,212.00 400.80,212.40 401.60,213.60"/>
    </edge>
    <edge id=":n_csr_6" function="internal">
        <lane id=":n_csr_6_0" index="0" speed="6.51" length="9.03" shape="413.60,208.00 411.15,208.35 409.40,209.40 408.35,211.15 408.00,213.60"/>
    </edge>
    <edge id=":n_csr_7" function="internal">
        <lane id=":n_csr_7_0" index="0" speed="13.89" length="27.20" shape="413.60,208.00 386.40,208.00"/>
        <lane id=":n_csr_7_1" index="1" speed="13.89" length="27.20" shape="413.60,204.80 386.40,204.80"/>
        <lane id=":n_csr_7_2" index="2" speed="13.89" length="27.20" shape="413.60,201.60 386.40,201.60"/>
    </edge>
    <edge id=":n_csr_10" function="internal">
        <lane id=":n_csr_10_0" index="0" speed="10.36" length="7.98" shape="413.60,201.60 406.95,200.65 405.87,200.00"/>
    </edge>
    <edge id=":n_csr_11" function="internal">
        <lane id=":n_csr_11_0" index="0" speed="3.65" length="2.34" shape="413.60,201.60 412.40,200.80 412.00,200.00"/>
    </edge>
    <edge id=":n_csr_26" function="internal">
        <lane id=":n_csr_26_0" index="0" speed="10.36" length="16.53" shape="405.87,200.00 402.20,197.80 399.35,193.05 398.40,186.40"/>
    </edge>
    <edge id=":n_csr_27" function="internal">
        <lane id=":n_csr_27_0" index="0" speed="3.65" length="2.34" shape="412.00,200.00 412.40,199.20 413.60,198.40"/>
    </edge>
    <edge id=":n_csr_12" function="internal">
        <lane id=":n_csr_12_0" index="0" speed="6.51" length="9.03" shape="408.00,186.40 408.35,188.85 409.40,190.60 411.15,191.65 413.60,192.00"/>
    </edge>
    <edge id=":n_csr_13" function="internal">
        <lane id=":n_csr_13_0" index="0" speed="13.89" length="27.20" shape="408.00,186.40 408.00,213.60"/>
        <lane id=":n_csr_13_1" index="1" speed="13.89" length="27.20" shape="404.80,186.40 404.80,213.60"/>
        <lane id=":n_csr_13_2" index="2" speed="13.89" length="27.20" shape="401.60,186.40 401.60,213.60"/>
    </edge>
    <edge id=":n_csr_16" function="internal">
        <lane id=":n_csr_16_0" index="0" speed="10.36" length="7.98" shape="401.60,186.40 400.65,193.05 400.00,194.13"/>
    </edge>
    <edge id=":n_csr_17" function="internal">
        <lane id=":n_csr_17_0" index="0" speed="3.65" length="2.34" shape="401.60,186.40 400.80,187.60 400.00,188.00"/>
    </edge>
    <edge id=":n_csr_28" function="internal">
        <lane id=":n_csr_28_0" index="0" speed="10.36" length="16.53" shape="400.00,194.13 397.80,197.80 393.05,200.65 386.40,201.60"/>
    </edge>
    <edge id=":n_csr_29" function="internal">
        <lane id=":n_csr_29_0" index="0" speed="3.65" length="2.34" shape="400.00,188.00 399.20,187.60 398.40,186.40"/>
    </edge>
    <edge id=":n_csr_18" function="internal">
        <lane id=":n_csr_18_0" index="0" speed="6.51" length="9.03" shape="386.40,192.00 388.85,191.65 390.60,190.60 391.65,188.85 392.00,186.40"/>
    </edge>
    <edge id=":n_csr_19" function="internal">
        <lane id=":n_csr_19_0" index="0" speed="13.89" length="27.20" shape="386.40,192.00 413.60,192.00"/>
        <lane id=":n_csr_19_1" index="1" speed="13.89" length="27.20" shape="386.40,195.20 413.60,195.20"/>
        <lane id=":n_csr_19_2" index="2" speed="13.89" length="27.20" shape="386.40,198.40 413.60,198.40"/>
    </edge>
    <edge id=":n_csr_22" function="internal">
        <lane id=":n_csr_22_0" index="0" speed="10.36" length="7.98" shape="386.40,198.40 393.05,199.35 394.13,200.00"/>
    </edge>
    <edge id=":n_csr_23" function="internal">
        <lane id=":n_csr_23_0" index="0" speed="3.65" length="2.34" shape="386.40,198.40 387.60,199.20 388.00,200.00"/>
    </edge>
    <edge id=":n_csr_30" function="internal">
        <lane id=":n_csr_30_0" index="0" speed="10.36" length="16.53" shape="394.13,200.00 397.80,202.20 400.65,206.95 401.60,213.60"/>
    </edge>
    <edge id=":n_csr_31" function="internal">
        <lane id=":n_csr_31_0" index="0" speed="3.65" length="2.34" shape="388.00,200.00 387.60,200.80 386.40,201.60"/>
    </edge>
    <edge id=":n_ln_0" function="internal">
        <lane id=":n_ln_0_0" index="0" speed="3.65" length="4.67" shape="0.00,401.60 -1.20,400.80 -1.60,400.00 -1.20,399.20 0.00,398.40"/>
    </edge>
    <edge id=":n_ls_0" function="internal">
        <lane id=":n_ls_0_0" index="0" speed="3.65" length="4.67" shape="0.00,201.60 -1.20,200.80 -1.60,200.00 -1.20,199.20 0.00,198.40"/>
    </edge>
    <edge id=":n_nl_0" function="internal">
        <lane id=":n_nl_0_0" index="0" speed="3.65" length="4.67" shape="201.60,600.00 200.80,601.20 200.00,601.60 199.20,601.20 198.40,600.00"/>
    </edge>
    <edge id=":n_nr_0" function="internal">
        <lane id=":n_nr_0_0" index="0" speed="3.65" length="4.67" shape="401.60,600.00 400.80,601.20 400.00,601.60 399.20,601.20 398.40,600.00"/>
    </edge>
    <edge id=":n_rn_0" function="internal">
        <lane id=":n_rn_0_0" index="0" speed="3.65" length="4.67" shape="600.00,398.40 601.20,399.20 601.60,400.00 601.20,400.80 600.00,401.60"/>
    </edge>
    <edge id=":n_rs_0" function="internal">
        <lane id=":n_rs_0_0" index="0" speed="3.65" length="4.67" shape="600.00,198.40 601.20,199.20 601.60,200.00 601.20,200.80 600.00,201.60"/>
    </edge>
    <edge id=":n_sl_0" function="internal">
        <lane id=":n_sl_0_0" index="0" speed="3.65" length="4.67" shape="198.40,0.00 199.20,-1.20 200.00,-1.60 200.80,-1.20 201.60,0.00"/>
    </edge>
    <edge id=":n_sr_0" function="internal">
        <lane id=":n_sr_0_0" index="0" speed="3.65" length="4.67" shape="398.40,0.00 399.20,-1.20 400.00,-1.60 400.80,-1.20 401.60,0.00"/>
    </edge>

    <edge id="n_cnl_to_n_cnr" from="n_cnl" to="n_cnr" priority="-1">
        <lane id="n_cnl_to_n_cnr_0" index="0" speed="13.89" length="172.80" shape="213.60,392.00 386.40,392.00"/>
        <lane id="n_cnl_to_n_cnr_1" index="1" speed="13.89" length="172.80" shape="213.60,395.20 386.40,395.20"/>
        <lane id="n_cnl_to_n_cnr_2" index="2" speed="13.89" length="172.80" shape="213.60,398.40 386.40,398.40"/>
    </edge>
    <edge id="n_cnl_to_n_csl" from="n_cnl" to="n_csl" priority="-1">
        <lane id="n_cnl_to_n_csl_0" index="0" speed="13.89" length="172.80" shape="192.00,386.40 192.00,213.60"/>
        <lane id="n_cnl_to_n_csl_1" index="1" speed="13.89" length="172.80" shape="195.20,386.40 195.20,213.60"/>
        <lane id="n_cnl_to_n_csl_2" index="2" speed="13.89" length="172.80" shape="198.40,386.40 198.40,213.60"/>
    </edge>
    <edge id="n_cnl_to_n_ln" from="n_cnl" to="n_ln" priority="-1">
        <lane id="n_cnl_to_n_ln_0" index="0" speed="13.89" length="186.40" shape="186.40,408.00 0.00,408.00"/>
        <lane id="n_cnl_to_n_ln_1" index="1" speed="13.89" length="186.40" shape="186.40,404.80 0.00,404.80"/>
        <lane id="n_cnl_to_n_ln_2" index="2" speed="13.89" length="186.40" shape="186.40,401.60 0.00,401.60"/>
    </edge>
    <edge id="n_cnl_to_n_nl" from="n_cnl" to="n_nl" priority="-1">
        <lane id="n_cnl_to_n_nl_0" index="0" speed="13.89" length="186.40" shape="208.00,413.60 208.00,600.00"/>
        <lane id="n_cnl_to_n_nl_1" index="1" speed="13.89" length="186.40" shape="204.80,413.60 204.80,600.00"/>
        <lane id="n_cnl_to_n_nl_2" index="2" speed="13.89" length="186.40" shape="201.60,413.60 201.60,600.00"/>
    </edge>
    <edge id="n_cnr_to_n_cnl" from="n_cnr" to="n_cnl" priority="-1">
        <lane id="n_cnr_to_n_cnl_0" index="0" speed="13.89" length="172.80" shape="386.40,408.00 213.60,408.00"/>
        <lane id="n_cnr_to_n_cnl_1" index="1" speed="13.89" length="172.80" shape="386.40,404.80 213.60,404.80"/>
        <lane id="n_cnr_to_n_cnl_2" index="2" speed="13.89" length="172.80" shape="386.40,401.60 213.60,401.60"/>
    </edge>
    <edge id="n_cnr_to_n_csr" from="n_cnr" to="n_csr" priority="-1">
        <lane id="n_cnr_to_n_csr_0" index="0" speed="13.89" length="172.80" shape="392.00,386.40 392.00,213.60"/>
        <lane id="n_cnr_to_n_csr_1" index="1" speed="13.89" length="172.80" shape="395.20,386.40 395.20,213.60"/>
        <lane id="n_cnr_to_n_csr_2" index="2" speed="13.89" length="172.80" shape="398.40,386.40 398.40,213.60"/>
    </edge>
    <edge id="n_cnr_to_n_nr" from="n_cnr" to="n_nr" priority="-1">
        <lane id="n_cnr_to_n_nr_0" index="0" speed="13.89" length="186.40" shape="408.00,413.60 408.00,600.00"/>
        <lane id="n_cnr_to_n_nr_1" index="1" speed="13.89" length="186.40" shape="404.80,413.60 404.80,600.00"/>
        <lane id="n_cnr_to_n_nr_2" index="2" speed="13.89" length="186.40" shape="401.60,413.60 401.60,600.00"/>
    </edge>
    <edge id="n_cnr_to_n_rn" from="n_cnr" to="n_rn" priority="-1">
        <lane id="n_cnr_to_n_rn_0" index="0" speed="13.89" length="186.40" shape="413.60,392.00 600.00,392.00"/>
        <lane id="n_cnr_to_n_rn_1" index="1" speed="13.89" length="186.40" shape="413.60,395.20 600.00,395.20"/>
        <lane id="n_cnr_to_n_rn_2" index="2" speed="13.89" length="186.40" shape="413.60,398.40 600.00,398.40"/>
    </edge>
    <edge id="n_csl_to_n_cnl" from="n_csl" to="n_cnl" priority="-1">
        <lane id="n_csl_to_n_cnl_0" index="0" speed="13.89" length="172.80" shape="208.00,213.60 208.00,386.40"/>
        <lane id="n_csl_to_n_cnl_1" index="1" speed="13.89" length="172.80" shape="204.80,213.60 204.80,386.40"/>
        <lane id="n_csl_to_n_cnl_2" index="2" speed="13.89" length="172.80" shape="201.60,213.60 201.60,386.40"/>
    </edge>
    <edge id="n_csl_to_n_csr" from="n_csl" to="n_csr" priority="-1">
        <lane id="n_csl_to_n_csr_0" index="0" speed="13.89" length="172.80" shape="213.60,192.00 386.40,192.00"/>
        <lane id="n_csl_to_n_csr_1" index="1" speed="13.89" length="172.80" shape="213.60,195.20 386.40,195.20"/>
        <lane id="n_csl_to_n_csr_2" index="2" speed="13.89" length="172.80" shape="213.60,198.40 386.40,198.40"/>
    </edge>
    <edge id="n_csl_to_n_ls" from="n_csl" to="n_ls" priority="-1">
        <lane id="n_csl_to_n_ls_0" index="0" speed="13.89" length="186.40" shape="186.40,208.00 0.00,208.00"/>
        <lane id="n_csl_to_n_ls_1" index="1" speed="13.89" length="186.40" shape="186.40,204.80 0.00,204.80"/>
        <lane id="n_csl_to_n_ls_2" index="2" speed="13.89" length="186.40" shape="186.40,201.60 0.00,201.60"/>
    </edge>
    <edge id="n_csl_to_n_sl" from="n_csl" to="n_sl" priority="-1">
        <lane id="n_csl_to_n_sl_0" index="0" speed="13.89" length="186.40" shape="192.00,186.40 192.00,0.00"/>
        <lane id="n_csl_to_n_sl_1" index="1" speed="13.89" length="186.40" shape="195.20,186.40 195.20,0.00"/>
        <lane id="n_csl_to_n_sl_2" index="2" speed="13.89" length="186.40" shape="198.40,186.40 198.40,0.00"/>
    </edge>
    <edge id="n_csr_to_n_cnr" from="n_csr" to="n_cnr" priority="-1">
        <lane id="n_csr_to_n_cnr_0" index="0" speed="13.89" length="172.80" shape="408.00,213.60 408.00,386.40"/>
        <lane id="n_csr_to_n_cnr_1" index="1" speed="13.89" length="172.80" shape="404.80,213.60 404.80,386.40"/>
        <lane id="n_csr_to_n_cnr_2" index="2" speed="13.89" length="172.80" shape="401.60,213.60 401.60,386.40"/>
    </edge>
    <edge id="n_csr_to_n_csl" from="n_csr" to="n_csl" priority="-1">
        <lane id="n_csr_to_n_csl_0" index="0" speed="13.89" length="172.80" shape="386.40,208.00 213.60,208.00"/>
        <lane id="n_csr_to_n_csl_1" index="1" speed="13.89" length="172.80" shape="386.40,204.80 213.60,204.80"/>
        <lane id="n_csr_to_n_csl_2" index="2" speed="13.89" length="172.80" shape="386.40,201.60 213.60,201.60"/>
    </edge>
    <edge id="n_csr_to_n_rs" from="n_csr" to="n_rs" priority="-1">
        <lane id="n_csr_to_n_rs_0" index="0" speed="13.89" length="186.40" shape="413.60,192.00 600.00,192.00"/>
        <lane id="n_csr_to_n_rs_1" index="1" speed="13.89" length="186.40" shape="413.60,195.20 600.00,195.20"/>
        <lane id="n_csr_to_n_rs_2" index="2" speed="13.89" length="186.40" shape="413.60,198.40 600.00,198.40"/>
    </edge>
    <edge id="n_csr_to_n_sr" from="n_csr" to="n_sr" priority="-1">
        <lane id="n_csr_to_n_sr_0" index="0" speed="13.89" length="186.40" shape="392.00,186.40 392.00,0.00"/>