<configuration>
    <input>
        <net-file value="intersection2x2.net.xml"/>
        <route-files value="intersection2x2.rou.xml"/>
    </input>
    <time>
        <begin value="0"/>
        <end value="10000"/>
    </time>
</configuration>