
<nodes>
    <node id="n_nl" x="-100.0" y="300.0" />
    <node id="n_nr" x="100.0" y="300.0" />

    <node id="n_ln" x="-300.0" y="100.0" />
    <node id="n_cnl" x="-100.0" y="100.0" type="traffic_light" tl="n_cnl" />
    <node id="n_cnr" x="100.0" y="100.0" type="traffic_light" tl="n_cnr"/>
    <node id="n_rn" x="300.0" y="100.0" />
    <node id="n_ls" x="-300.0" y="-100.0" />
    <node id="n_csl" x="-100.0" y="-100.0" type="traffic_light" tl="n_csl"/>
    <node id="n_csr" x="100.0" y="-100.0" type="traffic_light" tl="n_csr"/>
    <node id="n_rs" x="300.0" y="-100.0" />
    
    <node id="n_sl" x="-100.0" y="-300.0" />
    <node id="n_sr" x="100.0" y="-300.0" />
</nodes>