<?xml version='1.0' encoding='UTF-8'?>
<nodes>
	<node id="n_0_0" type="traffic_light" x="-300.0" y="300.0"/>
	<node id="n_0_1" type="traffic_light" x="-300.0" y="200.0"/>
	<node id="n_0_2" type="traffic_light" x="-300.0" y="100.0"/>
	<node id="n_0_3" type="traffic_light" x="-300.0" y="0.0"/>
	<node id="n_0_4" type="traffic_light" x="-300.0" y="-100.0"/>
	<node id="n_0_5" type="traffic_light" x="-300.0" y="-200.0"/>
	<node id="n_1_0" type="traffic_light" x="-200.0" y="300.0"/>
	<node id="n_1_1" type="traffic_light" x="-200.0" y="200.0"/>
	<node id="n_1_2" type="traffic_light" x="-200.0" y="100.0"/>
	<node id="n_1_3" type="traffic_light" x="-200.0" y="0.0"/>
	<node id="n_1_4" type="traffic_light" x="-200.0" y="-100.0"/>
	<node id="n_1_5" type="traffic_light" x="-200.0" y="-200.0"/>
	<node id="n_2_0" type="traffic_light" x="-100.0" y="300.0"/>
	<node id="n_2_1" type="traffic_light" x="-100.0" y="200.0"/>
	<node id="n_2_2" type="traffic_light" x="-100.0" y="100.0"/>
	<node id="n_2_3" type="traffic_light" x="-100.0" y="0.0"/>
	<node id="n_2_4" type="traffic_light" x="-100.0" y="-100.0"/>
	<node id="n_2_5" type="traffic_light" x="-100.0" y="-200.0"/>
	<node id="n_3_0" type="traffic_light" x="0.0" y="300.0"/>
	<node id="n_3_1" type="traffic_light" x="0.0" y="200.0"/>
	<node id="n_3_2" type="traffic_light" x="0.0" y="100.0"/>
	<node id="n_3_3" type="traffic_light" x="0.0" y="0.0"/>
	<node id="n_3_4" type="traffic_light" x="0.0" y="-100.0"/>
	<node id="n_3_5" type="traffic_light" x="0.0" y="-200.0"/>
	<node id="n_4_0" type="traffic_light" x="100.0" y="300.0"/>
	<node id="n_4_1" type="traffic_light" x="100.0" y="200.0"/>
	<node id="n_4_2" type="traffic_light" x="100.0" y="100.0"/>
	<node id="n_4_3" type="traffic_light" x="100.0" y="0.0"/>
	<node id="n_4_4" type="traffic_light" x="100.0" y="-100.0"/>
	<node id="n_4_5" type="traffic_light" x="100.0" y="-200.0"/>
	<node id="n_5_0" type="traffic_light" x="200.0" y="300.0"/>
	<node id="n_5_1" type="traffic_light" x="200.0" y="200.0"/>
	<node id="n_5_2" type="traffic_light" x="200.0" y="100.0"/>
	<node id="n_5_3" type="traffic_light" x="200.0" y="0.0"/>
	<node id="n_5_4" type="traffic_light" x="200.0" y="-100.0"/>
	<node id="n_5_5" type="traffic_light" x="200.0" y="-200.0"/>
	<node id="n_0_u" x="-300.0" y="400.0"/>
	<node id="n_0_r" x="300.0" y="300.0"/>
	<node id="n_0_d" x="-300.0" y="-300.0"/>
	<node id="n_0_l" x="-400.0" y="300.0"/>
	<node id="n_1_u" x="-200.0" y="400.0"/>
	<node id="n_1_r" x="300.0" y="200.0"/>
	<node id="n_1_d" x="-200.0" y="-300.0"/>
	<node id="n_1_l" x="-400.0" y="200.0"/>
	<node id="n_2_u" x="-100.0" y="400.0"/>
	<node id="n_2_r" x="300.0" y="100.0"/>
	<node id="n_2_d" x="-100.0" y="-300.0"/>
	<node id="n_2_l" x="-400.0" y="100.0"/>
	<node id="n_3_u" x="0.0" y="400.0"/>
	<node id="n_3_r" x="300.0" y="0.0"/>
	<node id="n_3_d" x="0.0" y="-300.0"/>
	<node id="n_3_l" x="-400.0" y="0.0"/>
	<node id="n_4_u" x="100.0" y="400.0"/>
	<node id="n_4_r" x="300.0" y="-100.0"/>
	<node id="n_4_d" x="100.0" y="-300.0"/>
	<node id="n_4_l" x="-400.0" y="-100.0"/>
	<node id="n_5_u" x="200.0" y="400.0"/>
	<node id="n_5_r" x="300.0" y="-200.0"/>
	<node id="n_5_d" x="200.0" y="-300.0"/>
	<node id="n_5_l" x="-400.0" y="-200.0"/>
	</nodes>
	
