<?xml version='1.0' encoding='UTF-8'?>
<configuration>
	<input>
	<net-file value="test_grid.net.xml"/>
	</input>
	<time>
	<begin value="0"/>
	<end value="10000"/>
	</time>
	<output>
	<netstate-dump value="c:\Users\Admin\Desktop\vscode\traffic-optimization_RL\traffic-optimization_RL\Env\test_grid_dump.net.xml"/>
	</output>
	</configuration>
	
