<?xml version="1.0" encoding="UTF-8"?>

<!-- generated on 01/06/21 17:56:28 by Eclipse SUMO netedit Version 1.8.0
<configuration xmlns:xsi="http://www.w3.org/2001/XMLSchema-instance" xsi:noNamespaceSchemaLocation="http://sumo.dlr.de/xsd/netconvertConfiguration.xsd">

    <input>
        <sumo-net-file value="C:\Users\Admin\Desktop\vscode\traffic-optimization_RL\test.net.xml"/>
    </input>

    <output>
        <output-file value="C:\Users\Admin\Desktop\vscode\traffic-optimization_RL\test.net.xml"/>
    </output>

    <processing>
        <geometry.min-radius.fix.railways value="false"/>
        <geometry.max-grade.fix value="false"/>
        <offset.disable-normalization value="true"/>
        <lefthand value="false"/>
    </processing>

    <junctions>
        <no-turnarounds value="true"/>
        <junctions.corner-detail value="5"/>
        <junctions.limit-turn-speed value="5.5"/>
        <rectangular-lane-cut value="false"/>
    </junctions>

    <pedestrian>
        <walkingareas value="false"/>
    </pedestrian>

    <report>
        <aggregate-warnings value="5"/>
    </report>

</configuration>
-->

<additional xmlns:xsi="http://www.w3.org/2001/XMLSchema-instance" xsi:noNamespaceSchemaLocation="http://sumo.dlr.de/xsd/additional_file.xsd">
    <tlLogic id="n_csr" type="static" programID="1" offset="0">
        <phase duration="42" state="GGGGggrrrrrrGGGGggrrrrrr"/>
        <phase duration="3" state="yyyyyyrrrrrryyyyyyrrrrrr"/>
        <phase duration="42" state="rrrrrrGGGGggrrrrrrGGGGgg"/>
        <phase duration="3" state="rrrrrryyyyyyrrrrrryyyyyy"/>
    </tlLogic>
</additional>
