<?xml version='1.0' encoding='UTF-8'?>
<additional>
	<edgeData id="edgeData_00" file="3x3grid_edgeData.xml" begin="0" end="10000" freq="1000"/>
	<laneData id="laneData_00" file="3x3grid_laneData.xml" begin="0" end="10000" freq="1000"/>
	<tlLogic programID="myprogram" offset="0" type="static"><phase duration="42" state="rrrrrrrrrrrrrrrrrrr"/><phase duration="42" state="ggggggggggggggggggg"/></tlLogic></additional>
	
